egret/models/tests/pglib_opf_case3_lmbd_fdf_simplified_1000.json
{"elements": {"bus": {"1": {"matpower_bustype": "ref", "area": 1.0, "vm": 1.1000000019701157, "va": -5.388960854050469e-17, "base_kv": 240.0, "zone": 1.0, "v_min": 0.9, "v_max": 1.1, "lmp": 35.1390827813007, "qlmp": 1.1178804467799657e-14, "pl": 110.00000000000001, "ql": 40.0, "ploss_sens": 0.0, "qloss_sens": -1.0, "vdf": {"1": 0.10435047554780386, "2": 0.5537237375869498, "3": 0.538210035060479}, "vdf_c": 0.5499999999999998}, "2": {"matpower_bustype": "PV", "area": 1.0, "vm": 0.9261705369287474, "va": 0.19013088904401926, "base_kv": 240.0, "zone": 1.0, "v_min": 0.9, "v_max": 1.1, "lmp": 31.974247137831245, "qlmp": -1.257041639754485e-13, "pl": 110.00000000000001, "ql": 40.0, "ploss_sens": 0.004754275479160084, "qloss_sens": -0.9999999999999999, "vdf": {"1": 0.46090805559895476, "2": 0.2667474031079315, "3": 0.7305941105484679}, "vdf_c": 0.46308526842120357}, "3": {"matpower_bustype": "PV", "area": 1.0, "vm": 0.8999999912886711, "va": -0.27565147516596855, "base_kv": 240.0, "zone": 1.0, "v_min": 0.9, "v_max": 1.1, "lmp": 39.63045028199314, "qlmp": 1.198233170582943e-13, "pl": 95.0, "ql": 50.0, "ploss_sens": 0.05456872527039637, "qloss_sens": -1.0, "vdf": {"1": 0.4201262590394744, "2": 0.6771849193318586, "3": 0.33065672140582814}, "vdf_c": 0.44999999999999984}}, "load": {"load_1": {"in_service": true, "p_load": 110.00000000000001, "q_load": 40.0, "bus": "1"}, "load_2": {"in_service": true, "p_load": 110.00000000000001, "q_load": 40.0, "bus": "2"}, "load_3": {"in_service": true, "p_load": 95.0, "q_load": 50.0, "bus": "3"}}, "generator": {"1": {"bus": "1", "pg": 136.9958308240945, "qg": 54.69726781775286, "vg": 1.0, "mbase": 100.0, "in_service": true, "p_min": 0.0, "p_max": 2000.0, "q_min": -1000.0, "q_max": 1000.0, "generator_type": "thermal", "p_cost": {"data_type": "cost_curve", "cost_curve_type": "polynomial", "values": {"0": 0.0, "1": 5.0, "2": 0.11}}, "startup_cost": 0.0, "shutdown_cost": 0.0}, "2": {"bus": "2", "pg": 181.0249831637131, "qg": -8.791134982488913, "vg": 1.0, "mbase": 100.0, "in_service": true, "p_min": 0.0, "p_max": 2000.0, "q_min": -1000.0, "q_max": 1000.0, "generator_type": "thermal", "p_cost": {"data_type": "cost_curve", "cost_curve_type": "polynomial", "values": {"0": 0.0, "1": 1.2, "2": 0.08500000000000002}}, "startup_cost": 0.0, "shutdown_cost": 0.0}, "3": {"bus": "3", "pg": 0.0, "qg": -4.842636771195785, "vg": 1.0, "mbase": 100.0, "in_service": true, "p_min": 0.0, "p_max": 0.0, "q_min": -1000.0, "q_max": 1000.0, "generator_type": "thermal", "p_cost": {"data_type": "cost_curve", "cost_curve_type": "polynomial", "values": {"0": 0.0, "1": 0.0, "2": 0.0}}, "startup_cost": 0.0, "shutdown_cost": 0.0}}, "branch": {"1": {"from_bus": "1", "to_bus": "3", "resistance": 0.065, "reactance": 0.62, "charging_susceptance": 0.45, "branch_type": "line", "rating_long_term": 9000.0, "rating_short_term": 9000.0, "rating_emergency": 9000.0, "in_service": true, "angle_diff_min": -30.0, "angle_diff_max": 30.0, "pf": 46.34773987348954, "qf": 22.492400836097154, "pt": -49.14556828305927, "qt": -34.90846563423724, "pfl": 2.1615509021586377, "qfl": -24.832129597927683, "pf_dual": 3757.4719464922764, "qf_dual": 6.359756182730438e-09, "ptdf": {"1": 0.0, "2": 0.352002257978692, "3": 0.7617654171830306}, "ptdf_c": -0.010190203123727731, "qtdf": {"1": -0.38846243213173975, "2": -0.06223025023437102, "3": 0.3613857782912081}, "qtdf_c": -2.7755575615628914e-17}, "2": {"from_bus": "3", "to_bus": "2", "resistance": 0.025, "reactance": 0.75, "charging_susceptance": 0.7, "branch_type": "line", "rating_long_term": 50.0, "rating_short_term": 50.0, "rating_emergency": 50.0, "in_service": true, "angle_diff_min": -30.0, "angle_diff_max": 30.0, "pf": -49.99999999984631, "qf": -0.8101060096906325, "pt": 46.52525119736147, "qt": -18.313959121065228, "pfl": 0.6708194804207424, "qfl": -38.248130252379774, "pf_dual": -963.5592600437406, "qf_dual": -3.38079134507199e-11, "ptdf": {"1": 0.0, "2": 0.3457905145289684, "3": -0.2671213544280701}, "ptdf_c": -0.0006370585658797383, "qtdf": {"1": -0.03306564448023224, "2": 0.37181875822854654, "3": -0.3544238754425196}, "qtdf_c": 1.214306433183765e-17}, "3": {"from_bus": "1", "to_bus": "2", "resistance": 0.042, "reactance": 0.9, "charging_susceptance": 0.3, "branch_type": "line", "rating_long_term": 9000.0, "rating_short_term": 9000.0, "rating_emergency": 9000.0, "in_service": true, "angle_diff_min": -30.0, "angle_diff_max": 30.0, "pf": -20.468957241319533, "qf": 17.549053821147883, "pt": 13.481042093852826, "qt": -30.47717586747673, "pfl": 0.24082958333825621, "qfl": -25.856244084926338, "pf_dual": 3757.471946492103, "qf_dual": 6.344517840074416e-09, "ptdf": {"1": 0.0, "2": 0.64511571874178, "3": 0.2695816196885998}, "ptdf_c": -0.0025987804945490356, "qtdf": {"1": -0.29525716806681673, "2": 0.3523597719786906, "3": -0.07261600252131462}, "qtdf_c": 8.326672684688674e-17}}}, "system": {"model_name": "pglib_opf_case3_lmbd", "mpc_version": "'2'", "baseMVA": 100.0, "reference_bus": "1", "reference_bus_angle": 0.0, "total_cost": 5752.1272618681205, "ploss": 3.020813987807568, "qloss": -88.93650393593184, "ploss_const": -0.01825542577017088, "qloss_const": 1.1102230246251565e-16, "mult": 1.0}, "results": {"time": 0.00693202018737793, "#_cons": 13, "#_vars": 35, "#_nz": 36, "termination": "optimal"}}